LAMMPS (24 Mar 2022)

################################################################################
# LAMMPS input file                                                            #
#                                                                              #
# Prototype run for single point potential                                     #
#                                                                              #
# richard terrett, 2018                                                        #
#                                                                              #
################################################################################

# System init

units      metal
dimension  3
boundary   p p p
atom_style atomic
timestep   0.01

# read data
box tilt large
read_data NiAlO_2_iter_last_no_ox_lmp.data
Reading data file ...
  orthogonal box = (0 0 0) to (14.5 14.5 14.5)
  reading atoms ...
  250 atoms

# pair potential

pair_style eam/alloy
pair_coeff * * Mishin-Ni-Al-2009.eam.alloy Al Ni

# reporting

thermo 100

# Single point (0 iteration opt)

min_style cg
minimize 1e-5 1e-5 0 0
  update every 1 steps, delay 0 steps, check yes
Step          Temp          E_pair         E_mol          TotEng         Press
0   0             -1119.9257      0             -1119.9257     -96070.768
Loop time of 2.901e-06 on 1 procs for 0 steps with 250 atoms

Minimization stats:
  Stopping criterion = max iterations
  Energy initial, next-to-last, final =
  Force two-norm initial, final = 3.6760688 3.6760688
  Force max component initial, final = 2.3854123 2.3854123
  Final line search alpha, max atom move = 0 0
  Iterations, force evaluations = 0 0

# Thermalisation

velocity all create 300 1 mom yes rot no

dump   1 all atom 10 generic.dump
fix 1 all nve
run  10000
Step          Temp          E_pair         E_mol          TotEng         Press
0   300           -1119.9257      0             -1110.27       -92687.781
Averages over the last 51 of 101 rows, steps 5000 to 10000:
Temp E_pair E_mol TotEng Press
163.813 -1115.29 0 -1110.02 -86904.8
Loop time of 7.00785 on 1 procs for 10000 steps with 250 atoms

write_restart checkpoint.init
System init for write_restart ...
