LAMMPS (24 Mar 2022)

################################################################################
# LAMMPS input file                                                            #
#                                                                              #
# Prototype run for single point potential                                     #
#                                                                              #
# richard terrett, 2018                                                        #
#                                                                              #
################################################################################

# System init

units      metal
dimension  3
boundary   p p p
atom_style atomic
timestep   0.01

# read data
box tilt large
read_data NiO_Slab_iter_last_no_ox_lmp.data
Reading data file ...
  orthogonal box = (0 0 0) to (12.649858 12.649858 25.649858)
  reading atoms ...
  108 atoms

# pair potential

pair_style eam/alloy
pair_coeff * * Mishin-Ni-Al-2009.eam.alloy Ni

# reporting

thermo 100

# Single point (0 iteration opt)

min_style cg
minimize 1e-5 1e-5 0 0
  update every 1 steps, delay 0 steps, check yes
Step          Temp          E_pair         E_mol          TotEng         Press
0   0             -340.02636      0             -340.02636     -128991.57
Loop time of 2.766e-06 on 1 procs for 0 steps with 108 atoms

Minimization stats:
  Stopping criterion = max iterations
  Energy initial, next-to-last, final =
  Force two-norm initial, final = 10.01786 10.01786
  Force max component initial, final = 1.6630406 1.6630406
  Final line search alpha, max atom move = 0 0
  Iterations, force evaluations = 0 0

# Thermalisation

velocity all create 300 1 mom yes rot no

dump   1 all atom 10 generic.dump
fix 1 all nve
run  10000
Step          Temp          E_pair         E_mol          TotEng         Press
0   300           -340.02636      0             -335.87711     -127911.8
Averages over the last 51 of 101 rows, steps 5000 to 10000:
Temp E_pair E_mol TotEng Press
2694.4 -373.489 0 -336.224 -5503.59
Loop time of 2.71344 on 1 procs for 10000 steps with 108 atoms

write_restart checkpoint.init
System init for write_restart ...
