LAMMPS (24 Mar 2022)

################################################################################
# LAMMPS input file                                                            #
#                                                                              #
# Prototype run for single point potential                                     #
#                                                                              #
# richard terrett, 2018                                                        #
#                                                                              #
################################################################################

# System init

units      metal
dimension  3
boundary   p p p
atom_style atomic
timestep   0.01

# read data
box tilt large
read_data NiO_Slab_O2_iter_last_no_ox_lmp.data
Reading data file ...
  triclinic box = (0 0 0) to (10.5415 9.1292069 28.5415) with tilt (-5.27075 0 0)
  reading atoms ...
  125 atoms

# pair potential

pair_style eam/alloy
pair_coeff * * Mishin-Ni-Al-2009.eam.alloy Ni

# reporting

thermo 100

# Single point (0 iteration opt)

min_style cg
minimize 1e-5 1e-5 0 0
  update every 1 steps, delay 0 steps, check yes
Step          Temp          E_pair         E_mol          TotEng         Press
0   0             -394.66766      0             -394.66766      107164.74
Loop time of 8.154e-06 on 1 procs for 0 steps with 125 atoms

Minimization stats:
  Stopping criterion = max iterations
  Energy initial, next-to-last, final =
  Force two-norm initial, final = 22.16641 22.16641
  Force max component initial, final = 3.3088051 3.3088051
  Final line search alpha, max atom move = 0 0
  Iterations, force evaluations = 0 0

# Thermalisation

velocity all create 300 1 mom yes rot no

dump   1 all atom 10 generic.dump
fix 1 all nve
run  10000
Step          Temp          E_pair         E_mol          TotEng         Press
0   300           -394.66766      0             -389.85918      109034.63
Averages over the last 51 of 101 rows, steps 5000 to 10000:
Temp E_pair E_mol TotEng Press
3129.97 -440.645 0 -390.477 -4349.77
Loop time of 3.90229 on 1 procs for 10000 steps with 125 atoms

write_restart checkpoint.init
System init for write_restart ...
