LAMMPS (24 Mar 2022)

################################################################################
# LAMMPS input file                                                            #
#                                                                              #
# Prototype run for single point potential                                     #
#                                                                              #
# richard terrett, 2018                                                        #
#                                                                              #
################################################################################

# System init

units      metal
dimension  3
boundary   p p p
atom_style atomic
timestep   0.01

# read data
box tilt large
read_data Al2O3_O_iter_last_no_ox_lmp.data
Reading data file ...
  triclinic box = (0 0 0) to (14.415084 12.483828 31.116254) with tilt (-7.207542 0 0)
  reading atoms ...
  108 atoms

# pair potential

pair_style eam/alloy
pair_coeff * * Mishin-Ni-Al-2009.eam.alloy Al

# reporting

thermo 100

# Single point (0 iteration opt)

min_style cg
minimize 1e-5 1e-5 0 0
  update every 1 steps, delay 0 steps, check yes
Step          Temp          E_pair         E_mol          TotEng         Press
0   0             -306.78259      0             -306.78259     -29769.143
Loop time of 1.912e-06 on 1 procs for 0 steps with 108 atoms

Minimization stats:
  Stopping criterion = max iterations
  Energy initial, next-to-last, final =
  Force two-norm initial, final = 8.1852431 8.1852431
  Force max component initial, final = 1.1574768 1.1574768
  Final line search alpha, max atom move = 0 0
  Iterations, force evaluations = 0 0

# Thermalisation

velocity all create 300 1 mom yes rot no

dump   1 all atom 10 generic.dump
fix 1 all nve
run  10000
Step          Temp          E_pair         E_mol          TotEng         Press
0   300           -306.78259      0             -302.63334     -28977.669
Averages over the last 51 of 101 rows, steps 5000 to 10000:
Temp E_pair E_mol TotEng Press
992.081 -316.633 0 -302.912 -3734.03
Loop time of 2.14485 on 1 procs for 10000 steps with 108 atoms

write_restart checkpoint.init
System init for write_restart ...
